powerfactory/powerfactory-converter/src/test/resources/ThreeMIB_T3W_phase_winding1_complete.xiidm
<?xml version="1.0" encoding="UTF-8"?>
<iidm:network xmlns:iidm="http://www.powsybl.org/schema/iidm/1_17" xmlns:slt="http://www.powsybl.org/schema/iidm/ext/slack_terminal/1_5" id="ThreeMIB_T3W_phase_winding1 - Study Case" caseDate="2021-01-01T10:00:00.000+02:00" forecastDistance="0" sourceFormat="POWER-FACTORY" minimumValidationLevel="STEADY_STATE_HYPOTHESIS">
    <iidm:substation id="S78">
        <iidm:voltageLevel id="VL78" nominalV="18.0" topologyKind="NODE_BREAKER">
            <iidm:nodeBreakerTopology>
                <iidm:busbarSection id="VL78_1 1" node="0"/>
                <iidm:busbarSection id="VL78_2 2" node="3"/>
                <iidm:busbarSection id="VL78_3 3" node="7"/>
                <iidm:switch id="VL78_Switch" kind="BREAKER" open="false" node1="0" node2="1"/>
                <iidm:switch id="VL78_Switch#0" kind="BREAKER" open="false" node1="0" node2="2"/>
                <iidm:switch id="VL78_Switch#1" kind="BREAKER" open="false" node1="3" node2="4"/>
                <iidm:switch id="VL78_Switch#2" kind="BREAKER" open="false" node1="3" node2="5"/>
                <iidm:switch id="VL78_Switch#3" kind="BREAKER" open="false" node1="3" node2="6"/>
                <iidm:switch id="VL78_Switch#4" kind="BREAKER" open="false" node1="7" node2="8"/>
                <iidm:switch id="VL78_Switch#5" kind="BREAKER" open="false" node1="7" node2="9"/>
            </iidm:nodeBreakerTopology>
            <iidm:generator id="sym_1_1" energySource="OTHER" minP="0.0" maxP="1560.0" targetP="1404.0" localTargetV="18.719999313354492" localTargetQ="0.0" node="1">
                <iidm:minMaxReactiveLimits minQ="-9900.0" maxQ="9900.0"/>
                <iidm:voltageRegulation mode="VOLTAGE" regulating="true"/>
            </iidm:generator>
            <iidm:generator id="sym_2_1" energySource="OTHER" minP="0.0" maxP="1560.0" targetP="1404.0" localTargetV="18.719999313354492" localTargetQ="0.0" node="4">
                <iidm:minMaxReactiveLimits minQ="-9900.0" maxQ="9900.0"/>
                <iidm:voltageRegulation mode="VOLTAGE" regulating="true"/>
            </iidm:generator>
            <iidm:generator id="sym_3_1" energySource="OTHER" minP="0.0" maxP="890.0" targetP="800.0" localTargetV="18.359999656677246" localTargetQ="0.0" node="8">
                <iidm:minMaxReactiveLimits minQ="-9900.0" maxQ="9900.0"/>
                <iidm:voltageRegulation mode="VOLTAGE" regulating="true"/>
            </iidm:generator>
        </iidm:voltageLevel>
        <iidm:voltageLevel id="VL81" nominalV="500.0" topologyKind="NODE_BREAKER">
            <iidm:nodeBreakerTopology>
                <iidm:busbarSection id="VL81_4 4" node="0"/>
                <iidm:busbarSection id="VL81_5 5" node="5"/>
                <iidm:busbarSection id="VL81_6 6" node="12"/>
                <iidm:switch id="VL81_Switch" kind="BREAKER" open="false" node1="0" node2="1"/>
                <iidm:switch id="VL81_Switch#0" kind="BREAKER" open="false" node1="0" node2="2"/>
                <iidm:switch id="VL81_Switch#1" kind="BREAKER" open="false" node1="0" node2="3"/>
                <iidm:switch id="VL81_Switch#2" kind="BREAKER" open="false" node1="0" node2="4"/>
                <iidm:switch id="VL81_Switch#3" kind="BREAKER" open="false" node1="5" node2="6"/>
                <iidm:switch id="VL81_Switch#4" kind="BREAKER" open="true" node1="5" node2="7"/>
                <iidm:switch id="VL81_Switch#5" kind="BREAKER" open="false" node1="5" node2="8"/>
                <iidm:switch id="VL81_Switch#6" kind="BREAKER" open="false" node1="5" node2="9"/>
                <iidm:switch id="VL81_Switch#7" kind="BREAKER" open="false" node1="5" node2="10"/>
                <iidm:switch id="VL81_Switch#8" kind="BREAKER" open="false" node1="5" node2="11"/>
                <iidm:switch id="VL81_Switch#9" kind="BREAKER" open="false" node1="12" node2="13"/>
                <iidm:switch id="VL81_Switch#10" kind="BREAKER" open="false" node1="12" node2="14"/>
                <iidm:switch id="VL81_Switch#11" kind="BREAKER" open="false" node1="12" node2="15"/>
                <iidm:switch id="VL81_Switch#12" kind="BREAKER" open="false" node1="12" node2="16"/>
            </iidm:nodeBreakerTopology>
            <iidm:generator id="sym_6_1" energySource="OTHER" minP="0.0" maxP="20000.0" targetP="9796.6845703125" localTargetV="500.0" localTargetQ="0.0" node="14">
                <iidm:minMaxReactiveLimits minQ="-9900.0" maxQ="9900.0"/>
                <iidm:voltageRegulation mode="VOLTAGE" regulating="true"/>
            </iidm:generator>
            <iidm:load id="lod_4_1" loadType="UNDEFINED" p0="1400.0" q0="100.0" node="1"/>
            <iidm:load id="lod_5_1" loadType="UNDEFINED" p0="2000.0" q0="100.0" node="6"/>
            <iidm:load id="lod_5_2" loadType="UNDEFINED" p0="0.0" q0="50.0" node="7"/>
            <iidm:load id="lod_6_1" loadType="UNDEFINED" p0="10000.0" q0="2000.0" node="13"/>
        </iidm:voltageLevel>
        <iidm:voltageLevel id="VL84" nominalV="16.0" topologyKind="NODE_BREAKER">
            <iidm:nodeBreakerTopology>
                <iidm:busbarSection id="VL84_7 7" node="0"/>
                <iidm:switch id="VL84_Switch" kind="BREAKER" open="false" node1="0" node2="1"/>
                <iidm:switch id="VL84_Switch#0" kind="BREAKER" open="false" node1="0" node2="2"/>
                <iidm:switch id="VL84_Switch#1" kind="BREAKER" open="false" node1="0" node2="3"/>
            </iidm:nodeBreakerTopology>
            <iidm:load id="lod_7_1" loadType="UNDEFINED" p0="1.0" q0="1.0" node="1"/>
        </iidm:voltageLevel>
        <iidm:twoWindingsTransformer id="trf_4_1_1" r="0.0" x="0.020768399119377133" ratedU1="500.0" ratedU2="18.0" ratedS="100.0" voltageLevelId1="VL81" node1="3" voltageLevelId2="VL78" node2="2"/>
        <iidm:twoWindingsTransformer id="trf_6_2_1" r="0.0" x="0.036288000154495244" ratedU1="500.0" ratedU2="18.0" ratedS="100.0" voltageLevelId1="VL81" node1="16" voltageLevelId2="VL78" node2="5"/>
        <iidm:twoWindingsTransformer id="trf_5_3_1" r="0.0" x="0.036288000154495244" ratedU1="500.0" ratedU2="18.0" ratedS="100.0" voltageLevelId1="VL81" node1="10" voltageLevelId2="VL78" node2="9"/>
        <iidm:twoWindingsTransformer id="trf_5_7_1" r="0.0" x="0.028672000122070315" ratedU1="500.0" ratedU2="16.0" ratedS="100.0" voltageLevelId1="VL81" node1="11" voltageLevelId2="VL84" node2="2"/>
        <iidm:threeWindingsTransformer id="tr3_4_2_7_1" r1="-7.799050892384979E-7" x1="1.1395910252132228E-4" g1="0.14457200622558594" b1="-0.1079031910636207" ratedU1="500.0" ratedS1="101.0" r2="2.506555016520443E-6" x2="1.9130874466647454E-4" ratedU2="18.360000610351562" ratedS2="201.0" r3="8.3908508670836E-7" x3="5.517908790607979E-4" ratedU3="15.680000305175781" ratedS3="301.0" ratedU0="1.0" voltageLevelId1="VL81" node1="4" voltageLevelId2="VL78" node2="6" voltageLevelId3="VL84" node3="3">
            <iidm:phaseTapChanger1 regulating="true" tapPosition="1" targetDeadband="2.0" loadTapChangingCapabilities="true" regulationMode="ACTIVE_POWER_CONTROL" regulationValue="9.0">
                <iidm:terminalRef id="tr3_4_2_7_1" side="ONE"/>
                <iidm:step rho="1.0" alpha="-0.0"/>
                <iidm:step rho="1.0" alpha="-2.0"/>
                <iidm:step rho="1.0" alpha="-25.0"/>
            </iidm:phaseTapChanger1>
        </iidm:threeWindingsTransformer>
    </iidm:substation>
    <iidm:line id="lne_4_5_1" r="0.0" x="90.0" voltageLevelId1="VL81" node1="2" voltageLevelId2="VL81" node2="8"/>
    <iidm:line id="lne_5_6_1" r="0.0" x="300.0" voltageLevelId1="VL81" node1="9" voltageLevelId2="VL81" node2="15"/>
    <iidm:extension id="VL81">
        <slt:slackTerminal id="sym_6_1"/>
    </iidm:extension>
</iidm:network>
